data_image0
_chemical_formula_structural       CrV2
_chemical_formula_sum              "Cr1 V2"
_cell_length_a       6.12339
_cell_length_b       10.015
_cell_length_c       5.0497
_cell_angle_alpha    148.134
_cell_angle_beta     123.39
_cell_angle_gamma    70.5869

_space_group_name_H-M_alt    "P 1"
_space_group_IT_number       1

loop_
  _space_group_symop_operation_xyz
  'x, y, z'

loop_
  _atom_site_type_symbol
  _atom_site_label
  _atom_site_symmetry_multiplicity
  _atom_site_fract_x
  _atom_site_fract_y
  _atom_site_fract_z
  _atom_site_occupancy
  Cr  Cr1       1.0  0.00000  0.00000  0.00000  1.0000
  V   V1        1.0  0.66667  0.66667  0.33333  1.0000
  V   V2        1.0  0.33333  0.33333  0.66667  1.0000
