data_image0
_chemical_formula_structural       Si2V
_chemical_formula_sum              "Si2 V1"
_cell_length_a       9.71635
_cell_length_b       9.71635
_cell_length_c       11.7916
_cell_angle_alpha    73.2987
_cell_angle_beta     73.2987
_cell_angle_gamma    51.2251

_space_group_name_H-M_alt    "P 1"
_space_group_IT_number       1

loop_
  _space_group_symop_operation_xyz
  'x, y, z'

loop_
  _atom_site_type_symbol
  _atom_site_label
  _atom_site_symmetry_multiplicity
  _atom_site_fract_x
  _atom_site_fract_y
  _atom_site_fract_z
  _atom_site_occupancy
  Si  Si1       1.0  0.00000  0.00000  0.00000  1.0000
  Si  Si2       1.0  0.66667  0.66667  0.33333  1.0000
  V   V1        1.0  0.33333  0.33333  0.66667  1.0000
