data_image0
_chemical_formula_structural       Zr
_chemical_formula_sum              "Zr1"
_cell_length_a       2.99579
_cell_length_b       3.6993
_cell_length_c       4.57098
_cell_angle_alpha    84.5047
_cell_angle_beta     93.0799
_cell_angle_gamma    113.056

_space_group_name_H-M_alt    "P 1"
_space_group_IT_number       1

loop_
  _space_group_symop_operation_xyz
  'x, y, z'

loop_
  _atom_site_type_symbol
  _atom_site_label
  _atom_site_symmetry_multiplicity
  _atom_site_fract_x
  _atom_site_fract_y
  _atom_site_fract_z
  _atom_site_occupancy
  Zr  Zr1       1.0  0.00000  0.00000  0.00000  1.0000
