data_image0
_chemical_formula_structural       Ni2
_chemical_formula_sum              "Ni2"
_cell_length_a       1.752
_cell_length_b       1.752
_cell_length_c       1.314
_cell_angle_alpha    90
_cell_angle_beta     90
_cell_angle_gamma    120

_space_group_name_H-M_alt    "P 1"
_space_group_IT_number       1

loop_
  _space_group_symop_operation_xyz
  'x, y, z'

loop_
  _atom_site_type_symbol
  _atom_site_label
  _atom_site_symmetry_multiplicity
  _atom_site_fract_x
  _atom_site_fract_y
  _atom_site_fract_z
  _atom_site_occupancy
  Ni  Ni1       1.0  0.38052  0.76104  0.85616  1.0000
  Ni  Ni2       1.0  0.76104  0.38052  0.28539  1.0000
